255
Time step: 0
C 0.0787032 0.041567 0.0412173
C 0.922964 0.862276 0.0354813
C 0.0100713 0.887842 0.866392
C 0.918346 0.0678341 0.874003
C 0.0859342 0.0984789 1.72203
C 0.875041 0.871097 1.75783
C 0.0598527 0.889662 2.62439
C 0.899661 0.0868876 2.59212
C 0.0116298 0.0262729 3.42699
C 0.929625 0.928568 3.43226
C 0.0153759 0.864531 4.30505
C 0.867672 0.0715185 4.35898
C 0.0194008 0.0112965 5.16747
C 0.872579 0.947855 5.15198
C 0.0554228 0.879612 6.06239
C 0.868769 0.0250695 6.03156
C 0.0137888 1.71049 0.058273
C 0.919373 2.64685 0.0767727
C 0.0458348 2.56915 0.89554
C 0.934682 1.73339 0.911598
C 0.0299374 1.74001 1.73188
C 0.887124 2.56511 1.73535
C 0.0378392 2.56983 2.65326
C 0.877578 1.73486 2.62554
C 0.0111473 1.72519 3.46675
C 0.941256 2.60236 3.43644
C 0.076201 2.61464 4.3175
C 0.8982 1.767 4.32925
C 0.0459352 1.77423 5.14945
C 0.88714 2.57841 5.1817
C 0.00922214 2.65539 5.99007
C 0.92109 1.73049 6.01238
C 0.00943896 3.50345 0.0885026
C 0.901682 4.31113 0.0858938
C 0.0290079 4.33133 0.872276
C 0.929096 3.50832 0.9257
C 0.0130369 3.43829 1.76437
C 0.871711 4.3697 1.78702
C 0.0811638 4.292 2.6387
C 0.898071 3.44823 2.58612
C 0.0158199 3.5148 3.44645
C 0.895409 4.28842 3.46798
C 0.0665636 4.28335 4.32805
C 0.939125 3.47222 4.28875
C 0.0775193 3.43505 5.19369
C 0.910392 4.35634 5.19898
C 0.071715 4.31293 6.06282
C 0.90644 3.4336 6.04321
C 0.0529094 5.13481 0.0507329
C 0.928636 5.99178 0.086206
C 0.0846245 6.00632 0.906454
C 0.920702 5.22762 0.9288
C 0.0285652 5.22406 1.71576
C 0.928938 6.07486 1.7439
C 0.056415 5.99324 2.60376
C 0.939841 5.13279 2.57752
C 0.038702 5.19147 3.43213
C 0.920569 6.0369 3.43892
C 0.0798691 5.99807 4.31667
C 0.898905 5.13106 4.27804
C 0.0700801 5.19294 5.14169
C 0.897155 6.05966 5.14724
C 0.0849787 6.014 5.98964
C 0.91406 5.18184 6.06001
C 1.76585 0.0983497 0.0771503
C 2.56717 0.87598 0.0650236
C 1.71136 0.88601 0.886178
C 2.62755 0.0806792 0.917363
C 1.77128 0.0496006 1.77324
C 2.62048 0.908133 1.73228
C 1.76122 0.920499 2.62904
C 2.65073 0.0251257 2.63747
C 1.72545 0.04246 3.42156
C 2.56573 0.857626 3.42647
C 1.7461 0.938372 4.29576
C 2.58256 0.0708665 4.34972
C 1.75522 0.098259 5.13648
C 2.60101 0.894697 5.21239
C 1.72536 0.910463 5.98968
C 2.6018 0.0750289 6.03642
C 1.7909 1.80162 0.0381379
C 2.60977 2.61091 0.0317562
C 1.74204 2.62499 0.864896
C 2.57611 1.80038 0.89231
C 1.73792 1.74524 1.79625
C 2.6018 2.60275 1.7648
C 1.71768 2.62074 2.60794
C 2.60489 1.72812 2.61004
C 1.77966 1.72093 3.42057
C 2.63126 2.57695 3.44224
C 1.73751 2.58684 4.32424
C 2.61436 1.71057 4.28126
C 1.72719 1.76602 5.20641
C 2.6504 2.604 5.16522
C 1.74637 2.65727 6.04687
C 2.60824 1.73113 6.0695
C 1.72112 3.48635 0.0400736
C 2.60209 4.28546 0.0372348
C 1.77211 4.3476 0.941051
C 2.61222 3.44752 0.891107
C 1.72494 3.4842 1.78569
C 2.60662 4.30511 1.77324
C 1.74097 4.32026 2.58909
C 2.62356 3.42468 2.62012
C 1.75838 3.4607 3.46194
C 2.64859 4.28595 3.43485
C 1.75526 4.36483 4.3624
C 2.60496 3.46916 4.33424
C 1.77672 3.45393 5.15714
C 2.60741 4.36058 5.20357
C 1.76582 4.36224 6.03189
C 2.61949 3.48814 6.00126
C 1.79925 5.18715 0.0366068
C 2.57673 6.03422 0.0707418
C 1.73895 6.0121 0.889209
C 2.60986 5.19387 0.907145
C 1.75603 5.19384 1.75518
C 2.59737 6.06582 1.71288
C 1.76107 6.06874 2.60475
C 2.6411 5.15415 2.56871
C 1.78792 5.21696 3.4921
C 2.62143 6.04101 3.47535
C 1.79138 6.00413 4.33583
C 2.57723 5.14699 4.32994
C 1.74215 5.20673 5.18309
C 2.56876 6.08153 5.16753
C 1.73145 5.98711 6.02709
C 2.63311 5.15967 6.05021
C 3.46021 0.00436106 0.0594247
C 4.31559 0.952268 0.0570933
C 3.43161 0.943403 0.917725
C 4.31422 0.0541319 0.881583
C 3.48263 0.0326813 1.78422
C 4.33988 0.899647 1.71664
C 3.43087 0.934401 2.62053
C 4.29072 0.0722053 2.62338
C 3.47708 0.0889939 3.47499
C 4.2904 0.92556 3.49382
C 3.45179 0.939926 4.29859
C 4.3336 0.0297192 4.33428
C 3.47048 0.0217104 5.21717
C 4.2808 0.911467 5.19872
C 3.49396 0.941594 6.03023
C 4.33643 0.0727342 6.06419
C 3.4666 1.80868 0.0766494
C 4.33733 2.60938 0.0636683
C 3.48402 2.62267 0.921277
C 4.32541 1.73285 0.861493
C 3.48753 1.73032 1.76481
C 4.35073 2.66096 1.73468
C 3.50153 2.59562 2.60205
C 4.36439 1.79154 2.56508
C 3.48171 1.77203 3.50246
C 4.30548 2.64069 3.48486
C 3.43092 2.62215 4.32072
C 4.3507 1.71472 4.30206
C 3.45968 1.73569 5.16382
C 4.34137 2.63162 5.15295
C 3.47404 2.66227 6.02041
C 4.34538 1.71029 6.03787
C 3.45412 3.43082 0.0225391
C 4.28795 4.30971 0.0759193
C 3.4951 4.32917 0.877268
C 4.34927 3.48908 0.90652
C 3.42147 3.51354 1.72735
C 4.34907 4.37404 1.77551
C 3.42808 4.33161 2.61388
C 4.31816 3.45478 2.64377
C 3.48684 3.49818 3.45732
C 4.30799 4.36883 3.49162
C 3.47871 4.29797 4.29902
C 4.31508 3.44755 4.33183
C 3.46758 3.46748 5.17822
C 4.31246 4.29249 5.18965
C 3.45726 4.29707 6.05256
C 4.29829 3.5173 5.99337
C 3.45846 5.19991 0.0721436
C 4.34967 6.02309 0.0207365
C 3.46299 6.054 0.909861
C 4.36272 5.21427 0.934563
C 3.4216 5.1449 1.75156
C 4.30524 6.0189 1.77588
C 3.45333 6.02883 2.62691
C 4.33488 5.22049 2.65239
C 3.43819 5.159 3.48885
C 4.2869 5.99151 3.44234
C 3.4229 6.05046 4.36278
C 4.35961 5.20601 4.332
C 3.45186 5.22482 5.2028
C 4.29246 6.049 5.15549
C 3.48273 6.04581 6.04019
C 4.28127 5.21857 6.00813
C 5.20683 0.0636406 0.023265
C 5.98672 0.936954 0.0827998
C 5.1666 0.91074 0.892522
C 6.0602 0.0572312 0.923488
C 5.18119 0.0265731 1.75152
C 6.02931 0.88727 1.75238
C 5.18083 0.859624 2.57717
C 5.98805 0.0513273 2.6018
C 5.19593 0.0405105 3.47142
C 5.9859 0.870149 3.44132
C 5.20841 0.861723 4.30064
C 6.04874 0.00663466 4.32351
C 5.20784 0.0792698 5.14584
C 5.9886 0.876777 5.19398
C 5.1679 0.883219 6.06759
C 5.9937 0.0768594 5.9969
C 5.14896 1.80748 0.0321463
C 6.03235 2.61569 0.0266811
C 5.18625 2.66086 0.923652
C 5.99619 1.80656 0.867402
C 5.17948 1.75053 1.71763
C 6.02076 2.57547 1.77124
C 5.15201 2.66095 2.61162
C 6.06995 1.76018 2.59134
C 5.18143 1.80437 3.48855
C 6.05719 2.5902 3.45933
C 5.18348 2.5862 4.34273
C 6.03981 1.75448 4.29767
C 5.20676 1.7739 5.17274
C 6.06384 2.56633 5.14999
C 5.21666 2.62926 6.07186
C 6.04096 1.78923 6.04677
C 5.14711 3.46184 0.0885404
C 6.01622 4.36385 0.0536045
C 5.13886 4.37299 0.915053
C 6.06411 3.44823 0.906414
C 5.15429 3.49678 1.79719
C 6.05114 4.29399 1.72556
C 5.1627 4.30642 2.62673
C 5.98852 3.42472 2.63263
C 5.19936 3.44477 3.43073
C 6.02575 4.33373 3.44093
C 5.20459 4.28224 4.28769
C 6.00988 3.42527 4.28753
C 5.1664 3.49108 5.17954
C 5.99449 4.28381 5.18574
C 5.21506 4.31425 5.99038
C 6.03869 3.47891 5.99537
C 5.16623 5.16721 0.0686706
C 5.99797 6.07698 0.00532357
C 5.21912 5.99353 0.872552
C 5.99035 5.2027 0.915403
C 5.19716 5.20816 1.74716
C 6.02723 6.03864 1.75172
C 5.13592 6.01545 2.60173
C 6.07217 5.15513 2.65398
C 5.18484 5.22843 3.42941
C 6.07379 5.99386 3.42217
C 5.17792 6.06797 4.34676
C 6.04913 5.18033 4.27588
C 5.18472 5.14752 5.20987
C 6.06578 5.99528 5.13539
C 5.13557 6.07236 6.05812
C 5.99546 5.22855 6.06296